!Chemkin file converted from solution object: gas

ELEMENTS
N  H  O  C
END

SPECIES
N2  H  O2  OH  O  H2  H2O  HO2  H2O2  CO  CO2  HCO  CH3  CH4
CH2O  S-CH2  C2H4  C2H5  C2H2  C2H3  CH2CHO  C2H4O  CH2CO
CH3CH2O
END

REACTIONS
H + O2 <=> O + OH                                  3.5200e+16  -0.700  17069.79
H2 + O <=> H + OH                                  5.0600e+04  2.670  6290.63
H2 + OH <=> H + H2O                                1.1700e+09  1.300  3635.28
H2O + O <=> 2 OH                                   7.0000e+05  2.330  14548.28
2 H + M <=> H2 + M                                 1.3000e+18  -1.000  0.00
CO/1.9/  CO2/3.8/  H2/2.5/  H2O/12.0/
H + OH + M <=> H2O + M                             4.0000e+22  -2.000  0.00
CO/1.9/  CO2/3.8/  H2/2.5/  H2O/12.0/
2 O + M <=> O2 + M                                 6.1700e+15  -0.500  0.00
CO/1.9/  CO2/3.8/  H2/2.5/  H2O/12.0/
H + O + M <=> OH + M                               4.7100e+18  -1.000  0.00
CO/1.9/  CO2/3.8/  H2/2.5/  H2O/12.0/
H + O2 (+M) <=> HO2 (+M)                           4.6500e+12  0.440  0.000e+00
LOW / 5.7500e+19  -1.400  0.000e+00 /
TROE / 0.5  1e-30  1.0000000000000002e+30 /
CO/1.2/  CO2/2.4/  H2/2.5/  H2O/16.0/
H + HO2 <=> 2 OH                                   7.0800e+13  0.000  294.93
H + HO2 <=> H2 + O2                                1.6600e+13  0.000  822.90
H + HO2 <=> H2O + O                                3.1000e+13  0.000  1720.84
HO2 + O <=> O2 + OH                                2.0000e+13  0.000  0.00
HO2 + OH <=> H2O + O2                              7.0000e+12  0.000  -1094.65
DUPLICATE
HO2 + OH <=> H2O + O2                              4.5000e+14  0.000  10929.73
DUPLICATE
2 OH (+M) <=> H2O2 (+M)                            9.5500e+13  -0.270  0.000e+00
LOW / 2.7600e+25  -3.200  0.000e+00 /
TROE / 0.57  1.0000000000000002e+30  1e-30 /
CO/1.5/  CO2/2.0/  H2/2.5/  H2O/6.0/  H2O2/6.0/
2 HO2 <=> H2O2 + O2                                1.0300e+14  0.000  11042.07
DUPLICATE
2 HO2 <=> H2O2 + O2                                1.9400e+11  0.000  -1408.94
DUPLICATE
H + H2O2 <=> H2 + HO2                              2.3000e+13  0.000  7950.05
H + H2O2 <=> H2O + OH                              1.0000e+13  0.000  3585.09
H2O2 + OH <=> H2O + HO2                            1.7400e+12  0.000  1434.03
DUPLICATE
H2O2 + OH <=> H2O + HO2                            7.5900e+13  0.000  7272.94
DUPLICATE
H2O2 + O <=> HO2 + OH                              9.6300e+06  2.000  3991.40
CO + O (+M) <=> CO2 (+M)                           1.8000e+11  0.000  2.384e+03
LOW / 1.5500e+24  -2.790  4.191e+03 /
TROE / 1.0  1.0  10000000.0  10000000.0 /
CO/2.0/  CO2/4.0/  H2/2.5/  H2O/12.0/
CO + OH <=> CO2 + H                                4.4000e+06  1.500  -740.92
CO + HO2 <=> CO2 + OH                              2.0000e+13  0.000  22944.55
CO + O2 <=> CO2 + O                                1.0000e+12  0.000  47700.05
HCO + M <=> CO + H + M                             1.8600e+17  -1.000  17000.48
CO/2.5/  CO2/2.5/  H2/1.9/  H2O/12.0/
H + HCO <=> CO + H2                                5.0000e+13  0.000  0.00
HCO + O <=> CO + OH                                3.0000e+13  0.000  0.00
HCO + O <=> CO2 + H                                3.0000e+13  0.000  0.00
HCO + OH <=> CO + H2O                              3.0000e+13  0.000  0.00
HCO + O2 <=> CO + HO2                              7.5800e+12  0.000  409.89
CH3 + HCO <=> CH4 + CO                             5.0000e+13  0.000  0.00
H + HCO (+M) <=> CH2O (+M)                         1.0900e+12  0.480  -2.600e+02
LOW / 1.3500e+24  -2.570  4.249e+02 /
TROE / 0.7824  271.0  2755.0  6570.0 /
CH4/2.0/  CO/1.5/  CO2/2.0/  H2/2.0/  H2O/6.0/
CH2O + H <=> H2 + HCO                              5.7400e+07  1.900  2748.57
CH2O + O <=> HCO + OH                              3.5000e+13  0.000  3513.38
CH2O + OH <=> H2O + HCO                            3.9000e+10  0.890  406.31
CH2O + O2 <=> HCO + HO2                            6.0000e+13  0.000  40674.00
CH2O + HO2 <=> H2O2 + HCO                          4.1100e+04  2.500  10210.33
CH4 + H <=> CH3 + H2                               1.3000e+04  3.000  8037.76
CH4 + OH <=> CH3 + H2O                             1.6000e+07  1.830  2782.03
CH4 + O <=> CH3 + OH                               1.9000e+09  1.440  8675.91
CH4 + O2 <=> CH3 + HO2                             3.9800e+13  0.000  56890.54
CH4 + HO2 <=> CH3 + H2O2                           9.0300e+12  0.000  24641.49
CH3 + H <=> H2 + S-CH2                             1.5500e+14  0.000  13479.92
CH3 + OH <=> H2O + S-CH2                           4.0000e+13  0.000  2502.39
CH3 + O <=> CH2O + H                               8.4300e+13  0.000  0.00
CH3 + O2 <=> CH2O + OH                             3.3000e+11  0.000  8941.20
2 CH3 <=> C2H4 + H2                                1.0000e+14  0.000  32002.87
2 CH3 <=> C2H5 + H                                 3.1600e+13  0.000  14698.85
CH3 + H (+M) <=> CH4 (+M)                          1.2700e+16  -0.630  3.829e+02
LOW / 2.4700e+33  -4.760  2.440e+03 /
TROE / 0.783  74.0  2941.0  6964.0 /
CH4/2.0/  CO/1.5/  CO2/2.0/  H2/2.0/  H2O/16.0/
OH + S-CH2 <=> CH2O + H                            3.0000e+13  0.000  0.00
O2 + S-CH2 <=> CO + H + OH                         3.1300e+13  0.000  0.00
CO2 + S-CH2 <=> CH2O + CO                          3.0000e+12  0.000  0.00
C2H5 + H <=> C2H4 + H2                             3.0000e+13  0.000  0.00
C2H5 + O <=> C2H4 + OH                             3.0600e+13  0.000  0.00
C2H5 + O <=> CH2O + CH3                            4.2400e+13  0.000  0.00
C2H5 + O2 <=> C2H4 + HO2                           7.5000e+14  -1.000  4799.95
C2H5 (+M) <=> C2H4 + H (+M)                        1.1100e+10  1.037  3.677e+04
LOW / 3.9900e+33  -4.990  4.000e+04 /
TROE / 0.168  1200.0  1e-30 /
CH4/2.0/  CO/1.5/  CO2/2.0/  H2/2.0/  H2O/6.0/
C2H4 + H <=> C2H3 + H2                             4.4900e+07  2.120  13360.42
C2H4 + OH <=> C2H3 + H2O                           5.5300e+05  2.310  2963.67
C2H4 + O <=> CH3 + HCO                             2.2500e+06  2.080  0.00
C2H4 + O <=> CH2CHO + H                            1.2100e+06  2.080  0.00
2 C2H4 <=> C2H3 + C2H5                             5.0100e+14  0.000  64700.05
C2H4 + O2 <=> C2H3 + HO2                           4.2200e+13  0.000  57623.09
C2H4 + HO2 <=> C2H4O + OH                          2.2300e+12  0.000  17189.29
C2H4O + HO2 <=> CH3 + CO + H2O2                    4.0000e+12  0.000  17007.65
C2H4 + M <=> C2H3 + H + M                          2.6000e+17  0.000  96568.12
CH4/2.0/  CO/1.5/  CO2/2.0/  H2/2.0/  H2O/6.0/
C2H4 + M <=> C2H2 + H2 + M                         3.5000e+16  0.000  71532.03
CH4/2.0/  CO/1.5/  CO2/2.0/  H2/2.0/  H2O/6.0/
C2H3 + H <=> C2H2 + H2                             4.0000e+13  0.000  0.00
C2H3 (+M) <=> C2H2 + H (+M)                        6.3800e+09  1.000  3.763e+04
LOW / 1.5100e+14  0.100  3.269e+04 /
TROE / 0.3  1.0000000000000002e+30  1e-30 /
CH4/2.0/  CO/1.5/  CO2/2.0/  H2/2.0/  H2O/6.0/
C2H3 + O2 <=> CH2O + HCO                           1.7000e+29  -5.312  6503.11
C2H3 + O2 <=> CH2CHO + O                           7.0000e+14  -0.611  5262.43
C2H3 + O2 <=> C2H2 + HO2                           5.1900e+15  -1.260  3312.62
C2H2 + O2 <=> CH2O + CO                            4.6000e+15  -0.540  44933.08
C2H2 + OH <=> CH2CO + H                            1.9000e+07  1.700  999.04
CH2CO + H <=> CH3 + CO                             1.5000e+09  1.430  2688.81
CH2CO + CH3 <=> C2H5 + CO                          9.0000e+10  0.000  0.00
CH2CHO <=> CH2CO + H                               1.0470e+37  -7.189  44340.34
CH2CHO + H <=> CH3 + HCO                           5.0000e+13  0.000  0.00
CH2CHO + H <=> CH2CO + H2                          2.0000e+13  0.000  0.00
CH2CHO + O <=> CH2O + HCO                          1.0000e+14  0.000  0.00
CH2CHO + OH <=> CH2CO + H2O                        3.0000e+13  0.000  0.00
CH2CHO + O2 <=> CH2O + CO + OH                     3.0000e+10  0.000  0.00
CH2CHO + CH3 <=> C2H5 + CO + H                     4.9000e+14  -0.500  0.00
CH2CHO + HO2 <=> CH2O + HCO + OH                   7.0000e+12  0.000  0.00
CH2CHO <=> CH3 + CO                                1.1700e+43  -9.800  43799.95
C2H5 + HO2 <=> CH3CH2O + OH                        4.0000e+13  0.000  0.00
CH3CH2O + M <=> CH2O + CH3 + M                     5.3500e+37  -7.000  23799.95
CH4/2.0/  CO/1.5/  CO2/2.0/  H2/2.0/  H2O/6.0/
CH3CH2O + CO <=> C2H5 + CO2                        4.6800e+02  3.200  5380.02
CH3CH2O + H <=> C2H4 + H2O                         3.0000e+13  0.000  0.00
END